LAMMPS (21 Jan 2015)
# LAMMPS Input Script for a FAST Acetone Heating Simulation

# -- 1. Initialization --
units           real
atom_style      full
boundary        p p p
pair_style      lj/cut/coul/long 8.0 # Reduced cutoff for speed
bond_style      harmonic
angle_style     harmonic
dihedral_style  opls
special_bonds   lj/coul 0.0 0.0 0.5

# -- 2. System Definition --
read_data       data.acetone
  orthogonal box = (0 0 0) to (20 20 20)
  reading atoms ...
  270 atoms
  scanning bonds ...
  scanning angles ...
  scanning dihedrals ...
  reading bonds ...
  243 bonds
  reading angles ...
  405 angles
  reading dihedrals ...
  405 dihedrals
kspace_style    pppm 1.0e-4

# -- 3. Settings --
neighbor        2.0 bin
timestep        1.0

thermo          10
min_style       sd
minimize        1.0e-4 1.0e-4 500 5000
PPPM initialization ...
  G vector (1/distance) = 0.289532
  grid = 9 9 9
  stencil order = 5
  estimated absolute RMS force accuracy = 0.0167318
  estimated relative force accuracy = 5.03874e-05
  3d grid and FFT values/proc = 2744 729
Step Temp E_pair E_mol TotEng Press
0            0    4805.8406    606.07432    5411.9149    204747.44
Loop time of 0.973172 on 1 procs for 500 steps with 270 atoms

Minimization stats:
  Stopping criterion = max iterations
  Energy initial, next-to-last, final =
  Force two-norm initial, final = 9407.46 9.5823
  Force max component initial, final = 1100.23 1.19219
  Final line search alpha, max atom move = 0.0176919 0.0210921
  Iterations, force evaluations = 500 998

Pair  time (%) = 0.55373 (56.8994)
Bond  time (%) = 0.128064 (13.1595)
Kspce time (%) = 0.26639 (27.3734)
Neigh time (%) = 0.00102997 (0.105836)
Comm  time (%) = 0.0146973 (1.51025)
Outpt time (%) = 0.00162721 (0.167206)
Other time (%) = 0.00763392 (0.784437)

min_style       cg
minimize        1.0e-4 1.0e-4 500 5000
PPPM initialization ...
  G vector (1/distance) = 0.289532
  grid = 9 9 9
  stencil order = 5
  estimated absolute RMS force accuracy = 0.0167318
  estimated relative force accuracy = 5.03874e-05
  3d grid and FFT values/proc = 2744 729
Step Temp E_pair E_mol TotEng Press
500            0   -362.96237    29.845836   -333.11653     2008.314
Loop time of 0.034379 on 1 procs for 20 steps with 270 atoms

Minimization stats:
  Stopping criterion = energy tolerance
  Energy initial, next-to-last, final =
  Force two-norm initial, final = 9.5823 5.51435
  Force max component initial, final = 1.19219 1.1048
  Final line search alpha, max atom move = 0.0754679 0.0833767
  Iterations, force evaluations = 20 39

Pair  time (%) = 0.0195019 (56.7263)
Bond  time (%) = 0.00457048 (13.2944)
Kspce time (%) = 0.00955009 (27.7789)
Neigh time (%) = 0 (0)
Comm  time (%) = 0.0004251 (1.23651)
Outpt time (%) = 2.09808e-05 (0.061028)
Other time (%) = 0.000310421 (0.902938)

minimize        1.0e-4 1.0e-4 500 5000
PPPM initialization ...
  G vector (1/distance) = 0.289532
  grid = 9 9 9
  stencil order = 5
  estimated absolute RMS force accuracy = 0.0167318
  estimated relative force accuracy = 5.03874e-05
  3d grid and FFT values/proc = 2744 729
Step Temp E_pair E_mol TotEng Press
520            0   -380.87122    26.967919    -353.9033   -572.64539
Loop time of 0.00259805 on 1 procs for 1 steps with 270 atoms

Minimization stats:
  Stopping criterion = energy tolerance
  Energy initial, next-to-last, final =
  Force two-norm initial, final = 5.51435 3.58481
  Force max component initial, final = 1.1048 0.724435
  Final line search alpha, max atom move = 0.0905144 0.0655717
  Iterations, force evaluations = 1 2

Pair  time (%) = 0.00146604 (56.4284)
Bond  time (%) = 0.000324249 (12.4805)
Kspce time (%) = 0.000734806 (28.283)
Neigh time (%) = 0 (0)
Comm  time (%) = 3.09944e-05 (1.19299)
Outpt time (%) = 0 (0)
Other time (%) = 4.19617e-05 (1.61512)

timestep        1.0
reset_timestep  0

# -- 4. VERY FAST Equilibration at Start Temp --
fix             1 all nvt temp 298.0 298.0 100.0
thermo          200
thermo_style    custom step temp etotal press
run             50000 # 2 ps equilibration (very short)
PPPM initialization ...
  G vector (1/distance) = 0.289532
  grid = 9 9 9
  stencil order = 5
  estimated absolute RMS force accuracy = 0.0167318
  estimated relative force accuracy = 5.03874e-05
  3d grid and FFT values/proc = 2744 729
Step Temp TotEng Press
0            0   -353.91188   -525.06497
Averages over the last 126 of 251 rows, steps 25000 to 50000:
Temp TotEng Press
297.539 35.1561 -179.866
Loop time of 37.3095 on 1 procs for 50000 steps with 270 atoms

Pair  time (%) = 18.0019 (48.2501)
Bond  time (%) = 5.30687 (14.2239)
Kspce time (%) = 11.599 (31.0885)
Neigh time (%) = 1.41061 (3.78083)
Comm  time (%) = 0.574411 (1.53958)
Outpt time (%) = 0.00971889 (0.0260494)
Other time (%) = 0.407064 (1.09105)

unfix           1

# -- 5. VERY FAST Heating Ramp --
fix             1 all nvt temp 298.0 400.0 100.0
# Dump a unique trajectory file for acetone
dump            1 all custom 500 traj.acetone.lammpstrj id mol type x y z
run             100000 # 10 ps heating ramp (very short)
PPPM initialization ...
  G vector (1/distance) = 0.289532
  grid = 9 9 9
  stencil order = 5
  estimated absolute RMS force accuracy = 0.0167318
  estimated relative force accuracy = 5.03874e-05
  3d grid and FFT values/proc = 2744 729
Step Temp TotEng Press
50000    291.22973    23.042763    961.23515
Averages over the last 251 of 501 rows, steps 100000 to 150000:
Temp TotEng Press
375.125 159.702 -212.66
Loop time of 77.5483 on 1 procs for 100000 steps with 270 atoms

Pair  time (%) = 37.9126 (48.889)
Bond  time (%) = 10.885 (14.0364)
Kspce time (%) = 23.7401 (30.6133)
Neigh time (%) = 2.78617 (3.59282)
Comm  time (%) = 1.24936 (1.61107)
Outpt time (%) = 0.114294 (0.147384)
Other time (%) = 0.86077 (1.10998)
